12
Coordinates from ORCA-job inp
  C   -3.58853145505486      0.82265411086739     -0.00001157550991
  C   -3.66245113516961     -0.56819544389228     -0.00001560540234
  H   -0.18862811326884      1.18040686860259     -0.00005107597689
  O   -2.26862929297608      2.82461873179266     -0.00002012678472
  C   -2.48868781532713     -1.32819561090800     -0.00003213136964
  H   -4.63361419179048     -1.06839189642743     -0.00000562825215
  C   -1.24156072489263     -0.69599456451207     -0.00004482625506
  Cl  -2.58170532156459     -3.09073466590073     -0.00003718830911
  C   -1.16883594413711      0.69481304534167     -0.00004074657485
  H   -0.32830346789632     -1.29543448605970     -0.00005802874207
  C   -2.33742677955841      1.53821475032745     -0.00002366233629
  H   -4.51199675836394      1.40907616076847      0.00000159551302
