11
 xtb: 6.7.1 (edcfbbe)
C           -3.74761541431125        1.96925310839090        0.54247030732425
C           -0.12021456158896        1.20117596697554       -0.39459879628125
H           -1.13285634497626        0.76386182437137       -0.48001320832204
H           -3.40682872425558        2.17842157532527        1.49879402469393
H           -3.80567377971992        2.87354687519978       -0.13726703831044
S           -0.25139238923295        2.94380342996834        0.09742423986113
H            0.48635085599688        0.63675114903329        0.25914049067173
H            0.31854227931620        1.19163833373487       -1.42646056587726
C           -4.06929124160959        0.79995674207085        0.00777643582342
H           -3.94204330663739       -0.08056937490237        0.67510270820068
H           -4.34260011250560        0.61902036476569       -0.97018289118483
