11

C           -3.68327700576514        2.00986525418710        0.45721519507753
C           -0.24743497358793        1.21254586487420       -0.42753239943340
H           -1.28970709174318        0.90282263147006       -0.37303690147675
H           -3.34918690951905        2.22139614022043        1.45978935290035
H           -3.80326302677785        2.86379414802095       -0.18916858586200
S           -0.13177489209839        2.91551689704864        0.11393554884395
H            0.36356866997531        0.59311725193134        0.22473315521610
H            0.11234271201037        1.14336194851371       -1.45110350741774
C           -3.91838660228449        0.78162162037098        0.04298083002702
H           -3.79678437359097       -0.07354043165277        0.68894287107075
H           -4.24956550661857        0.57034967501497       -0.96124955894595
