12
Coordinates from ORCA-job inp
  C   -4.05919155231405     -1.93529864458224      1.93308434550148
  C   -3.76109143711219     -2.41651708294456      0.66155662980664
  Cl  -7.44397776137310     -3.94986638192199      2.82062638599780
  C   -5.20546861245348     -2.35996345079466      2.69674881911066
  H   -3.40958216781305     -1.19300390191986      2.40677702883943
  C   -4.58185166100177     -3.36724590070180      0.03699931904987
  H   -2.87170012249362     -2.04494971218229      0.14459688140817
  C   -5.71337280834372     -3.82392144335125      0.72568392002603
  H   -4.35312681539563     -3.74819381187787     -0.95898778913342
  C   -6.00553330287740     -3.33909025084701      1.99635577683784
  H   -6.37574546928325     -4.56440208124673      0.27188605924945
  O   -5.47758828953873     -1.91304233762973      3.86632962330606
