 xtb: 6.7.1 (edcfbbe)
          10172502253D

  4  3  0     0  0            999 V2000
   -3.1303    2.3794   -0.0000 C   0  0  0  0  0  0  0  0  0  0  0  0
   -3.3353    3.5920    0.0000 O   0  0  0  0  0  0  0  0  0  0  0  0
   -2.0876    1.7272   -0.0000 O   0  0  0  0  0  0  0  0  0  0  0  0
   -4.1193    1.7177   -0.0000 H   0  0  0  0  0  0  0  0  0  0  0  0
  1  2  2  0  0  0  0
  1  3  2  0  0  0  0
  1  4  1  0  0  0  0
M  CHG  1   1  -1
M  END
