 xtb: 6.7.1 (edcfbbe)
          10182502463D

 15 15  0     0  0            999 V2000
   -5.2317   -6.3793    2.9738 C   0  0  0  0  0  0  0  0  0  0  0  0
   -5.0729   -5.1337    3.5627 C   0  0  0  0  0  0  0  0  0  0  0  0
   -5.9004   -7.1076    3.4123 H   0  0  0  0  0  0  0  0  0  0  0  0
   -4.6761   -8.0261    1.1543 C   0  0  0  0  0  0  0  0  0  0  0  0
   -4.2286   -4.1938    3.0223 C   0  0  0  0  0  0  0  0  0  0  0  0
   -5.6235   -4.8947    4.4661 H   0  0  0  0  0  0  0  0  0  0  0  0
   -3.4826   -4.4554    1.8410 C   0  0  0  0  0  0  0  0  0  0  0  0
   -4.1080   -3.2202    3.4865 H   0  0  0  0  0  0  0  0  0  0  0  0
   -3.6753   -5.7410    1.2708 C   0  0  0  0  0  0  0  0  0  0  0  0
   -2.6885   -3.5851    1.3217 O   0  0  0  0  0  0  0  0  0  0  0  0
   -4.5240   -6.6829    1.8156 C   0  0  0  0  0  0  0  0  0  0  0  0
   -5.3785   -8.6475    1.7046 H   0  0  0  0  0  0  0  0  0  0  0  0
   -5.0369   -7.9049    0.1335 H   0  0  0  0  0  0  0  0  0  0  0  0
   -3.7140   -8.5354    1.1102 H   0  0  0  0  0  0  0  0  0  0  0  0
   -3.1183   -5.9674    0.3663 H   0  0  0  0  0  0  0  0  0  0  0  0
  1  2  4  0  0  0  0
  1  3  1  0  0  0  0
  2  5  4  0  0  0  0
  2  6  1  0  0  0  0
  5  7  4  0  0  0  0
  5  8  1  0  0  0  0
  7  9  4  0  0  0  0
  7 10  4  0  0  0  0
  1 11  4  0  0  0  0
  4 11  1  0  0  0  0
  9 11  4  0  0  0  0
  4 12  1  0  0  0  0
  4 13  1  0  0  0  0
  4 14  1  0  0  0  0
  9 15  1  0  0  0  0
M  CHG  1   1  -1
M  END
