15

C     -5.266936   -6.403754    3.004699
C     -5.106311   -5.096931    3.631957
H     -5.938157   -7.124763    3.448568
C     -4.672317   -8.057163    1.131654
C     -4.204945   -4.110792    3.047945
H     -5.652473   -4.848889    4.529902
C     -3.477540   -4.449921    1.845278
H     -4.083241   -3.138551    3.506088
C     -3.622212   -5.737770    1.201665
O     -2.709857   -3.603511    1.342759
C     -4.524992   -6.730263    1.787650
H     -5.375437   -8.702391    1.668433
H     -5.042975   -7.941293    0.107763
H     -3.708789   -8.576080    1.092453
H     -3.072611   -5.953444    0.294606
