 xtb: 6.7.1 (edcfbbe)
          10182504593D

  3  2  0     0  0            999 V2000
   -2.9539   -4.4877    2.7886 O   0  0  0  0  0  0  0  0  0  0  0  0
   -4.1701   -5.2209    2.5465 O   0  0  0  0  0  0  0  0  0  0  0  0
   -2.3961   -4.7764    2.0506 H   0  0  0  0  0  0  0  0  0  0  0  0
  1  2  1  0  0  0  0
  1  3  1  0  0  0  0
M  CHG  1   1  -1
M  END
