17
 xtb: 6.7.1 (edcfbbe)
C           -3.86730456988946       -4.07778979475090        1.90325328481453
C           -2.86377162694562       -3.06552937831505        2.51224387800699
H           -3.65214663714198       -4.19095471762747        0.83956576874243
H           -3.75856063264270       -5.03562428997197        2.38380198142782
H           -4.88979126552881       -3.71123375873230        2.02372000693772
C           -3.20337897646799       -2.89928006393253        4.01661376071638
H           -4.22113831920446       -2.52539397111361        4.14178277261499
C           -3.08753055797595       -1.69434367381870        1.82371619269099
H           -3.10566071307493       -3.85795379170111        4.52198334178649
H           -2.50116612790575       -2.20200905194009        4.46312721565050
O           -1.57368264535595       -3.51078548344303        2.33128219068878
H           -4.07814794632047       -1.33249985741781        1.97284699150974
H           -2.35508294108250       -0.98398215553934        2.24740180980793
H           -2.85856078382603       -1.79010979110907        0.76150902280469
O            0.05408558266404       -1.87604628963370        3.30752282042365
H           -0.66861158393907       -2.59302702980897        2.90893435395882
H            0.91853384252325       -2.29077030873247        3.08134957055094
