 xtb: 6.7.1 (edcfbbe)
          10182505473D

  7  5  0     0  0            999 V2000
   -5.8140   -2.8894    2.5921 C   0  0  0  0  0  0  0  0  0  0  0  0
   -4.6341   -1.6541    2.4396 Cl  0  0  0  0  0  0  0  0  0  0  0  0
   -6.3881   -3.5701    1.1327 Cl  0  0  0  0  0  0  0  0  0  0  0  0
   -6.9793   -2.6592    3.8287 Cl  0  0  0  0  0  0  0  0  0  0  0  0
   -4.5451   -5.4970    3.9159 O   0  0  0  0  0  0  0  0  0  0  0  0
   -4.2143   -4.6535    3.5978 H   0  0  0  0  0  0  0  0  0  0  0  0
   -5.4034   -5.3316    4.3117 H   0  0  0  0  0  0  0  0  0  0  0  0
  1  2  1  0  0  0  0
  1  3  1  0  0  0  0
  1  4  1  0  0  0  0
  5  6  1  0  0  0  0
  5  7  1  0  0  0  0
M  END
