26
 xtb: 6.7.1 (edcfbbe)
C           -7.38623147825119       -3.56051862667023       -3.18747469007831
C           -8.22603366494755       -3.43354443588138       -4.28833399024139
N           -5.78215445108099       -0.29622100429092       -3.02237596905879
H           -6.01781621552938       -2.60659709041691       -1.86053612097150
C           -8.24262074346267       -2.22977903505295       -4.97781081788791
H           -8.81500692039675       -4.26304239320244       -4.64486731212454
C           -7.46698095243644       -1.16861613067611       -4.56888588322316
H           -8.79927666950630       -2.12904111343046       -5.90003607733211
C           -6.63088442183497       -1.26076560742546       -3.42926974656221
H           -7.42690890391257       -0.25051897866242       -5.14468320361044
C           -6.60518790385012       -2.50990349434986       -2.76715837958721
H           -7.39106085317844       -4.49075080081277       -2.63094510617112
C           -5.97103679805317        1.02524931428382       -3.23679512873793
C           -7.23153370451882        1.66199501457714       -3.31213000706230
H           -4.06429298629773        3.83234648292812       -3.40786199040505
H           -3.88175169296158        1.39571219125324       -3.11706893654645
C           -7.33632719826303        3.02848450405694       -3.44406801725157
H           -8.14253253093085        1.06560240645885       -3.26844201574356
C           -6.20439998845610        3.82792366107814       -3.50588027984077
H           -8.31912393377310        3.49029037962699       -3.56258378961854
C           -4.95510711128544        3.22781747308218       -3.40560886352190
H           -6.28597062621514        4.89802484121152       -3.65353471679156
C           -4.83578303308503        1.86486333096992       -3.26654829611582
O           -4.10584277044395       -0.82643849119332       -0.98354237170858
H           -4.66173956161046       -0.67256561973533       -1.81669684339068
H           -4.36005153012229       -0.34666451975930       -0.32046963015244
