12
 xtb: 6.7.1 (edcfbbe)
C           -3.78971909723992       -0.68578651824202       -0.63157489799145
C           -2.67446156525444        0.02398963063195       -0.87829366897740
C           -1.37423025787214       -0.37051850165817       -0.18265162247449
O           -2.60076989901439        1.04556415230721       -1.68556783285443
H           -3.79016944001124       -1.53254094673265        0.01842803767127
H           -4.72817904948651       -0.42249075599378       -1.11052100709320
H           -1.52918894962263       -1.26101940616770        0.43024453097460
H           -0.61604750188841       -0.58499215426459       -0.93983864073101
H           -1.02464767288116        0.44522164629602        0.43006570737961
O           -4.79597225356897        1.81223843991086       -2.84268733046957
H           -3.96448608196402        1.52495769704855       -2.34093215835056
H           -4.44804744060302        2.04105408100561       -3.75700800558844
