5
Coordinates from ORCA-job inp
  N   -5.04728459053468     -1.66535636739448     -2.52908806657077
  C   -5.23575385986107     -2.81505232609065     -2.70742596432508
  O   -4.49811254826497      1.04472002699278     -2.13789514627612
  H   -4.69477968443407      0.07570795684337     -2.27917441161782
  H   -3.53793731690520      1.11244270964896     -2.27169941121021
