 xtb: 6.7.1 (edcfbbe)
          10182518303D

 11  9  0     0  0            999 V2000
   -3.6833    2.0099    0.4572 C   0  0  0  0  0  0  0  0  0  0  0  0
   -0.2474    1.2125   -0.4275 C   0  0  0  0  0  0  0  0  0  0  0  0
   -1.2897    0.9028   -0.3730 H   0  0  0  0  0  0  0  0  0  0  0  0
   -3.3492    2.2214    1.4598 H   0  0  0  0  0  0  0  0  0  0  0  0
   -3.8033    2.8638   -0.1892 H   0  0  0  0  0  0  0  0  0  0  0  0
   -0.1318    2.9155    0.1139 S   0  0  0  0  0  0  0  0  0  0  0  0
    0.3636    0.5931    0.2247 H   0  0  0  0  0  0  0  0  0  0  0  0
    0.1123    1.1434   -1.4511 H   0  0  0  0  0  0  0  0  0  0  0  0
   -3.9184    0.7816    0.0430 C   0  0  0  0  0  0  0  0  0  0  0  0
   -3.7968   -0.0735    0.6889 H   0  0  0  0  0  0  0  0  0  0  0  0
   -4.2496    0.5703   -0.9612 H   0  0  0  0  0  0  0  0  0  0  0  0
  2  3  1  0  0  0  0
  1  4  1  0  0  0  0
  1  5  1  0  0  0  0
  2  6  1  0  0  0  0
  2  7  1  0  0  0  0
  2  8  1  0  0  0  0
  1  9  2  0  0  0  0
  9 10  1  0  0  0  0
  9 11  1  0  0  0  0
M  END
