 xtb: 6.5.0 (97a52f5)
          10192520193D

  3  0  0     0  0            999 V2000
   -2.9811   -4.5228    2.7578 O   0  0  0  0  0  0  0  0  0  0  0  0
   -4.1890   -5.2102    2.5728 O   0  0  0  0  0  0  0  0  0  0  0  0
   -2.3498   -4.7520    2.0551 H   0  0  0  0  0  0  0  0  0  0  0  0
M  CHG  1   1  -1
M  END
