 xtb: 6.5.0 (97a52f5)
          10192520193D

 15  0  0     0  0            999 V2000
   -4.4762   -3.7263   -3.1850 C   0  0  0  0  0  0  0  0  0  0  0  0
   -3.4703   -2.7047   -2.6485 C   0  0  0  0  0  0  0  0  0  0  0  0
   -4.1009   -1.7328   -1.6123 C   0  0  0  0  0  0  0  0  0  0  0  0
   -3.1067   -1.0220   -1.0983 O   0  0  0  0  0  0  0  0  0  0  0  0
   -5.3933   -3.1217   -4.1015 O   0  0  0  0  0  0  0  0  0  0  0  0
   -6.3892   -4.0384   -4.5217 C   0  0  0  0  0  0  0  0  0  0  0  0
   -5.9342   -4.8966   -5.0258 H   0  0  0  0  0  0  0  0  0  0  0  0
   -6.9863   -4.3760   -3.6691 H   0  0  0  0  0  0  0  0  0  0  0  0
   -7.0502   -3.5302   -5.2289 H   0  0  0  0  0  0  0  0  0  0  0  0
   -3.9296   -4.5121   -3.7198 H   0  0  0  0  0  0  0  0  0  0  0  0
   -5.0240   -4.1926   -2.3576 H   0  0  0  0  0  0  0  0  0  0  0  0
   -2.6463   -3.2650   -2.1839 H   0  0  0  0  0  0  0  0  0  0  0  0
   -3.0533   -2.1338   -3.4897 H   0  0  0  0  0  0  0  0  0  0  0  0
   -4.9013   -1.2020   -2.1512 H   0  0  0  0  0  0  0  0  0  0  0  0
   -4.6867   -2.3630   -0.9245 H   0  0  0  0  0  0  0  0  0  0  0  0
M  CHG  1   1  -1
M  END
