18
 xtb: 6.7.1 (edcfbbe)
C           -5.29303772342037       -6.51911651520544        2.93865284985030
C           -5.10780878062548       -5.25834677136557        3.52391215801522
C           -2.94415614920847       -6.28159776211908       -0.08617462923936
H           -4.69687454251492       -7.80305410001151        1.31626691269735
C           -4.23188841370784       -4.33504343084388        2.95530769399852
H           -5.64476990335544       -4.98169601275463        4.43571706786451
C           -3.47573839036559       -4.60846235438654        1.76289681717708
H           -4.09645644630510       -3.33815566823987        3.40388136969693
C           -3.69139727103642       -5.91702812687447        1.17287283872067
O           -2.65108366308869       -3.74705558638538        1.26766957233009
C           -4.57725317129729       -6.81863952088573        1.76859047617851
H           -5.95901685553852       -7.24567896099754        3.39237502795065
H           -2.29170807429788       -5.45291091568592       -0.38463557000078
H           -2.30421478036113       -7.17798411992728        0.06230714404455
H           -3.61896447721752       -6.51502164475866       -0.91888514644381
O           -1.16847671340680       -2.18122991556314        2.68084462333621
H           -1.73630618737844       -2.81131711326437        2.19249175223504
H           -1.60515376661167       -2.18367791605008        3.57283862463621
