18
 xtb: 6.7.1 (edcfbbe)
C           -4.41117352788157       -3.70275034200808       -3.24600897759793
C           -3.46923313795984       -2.63245338209005       -2.72136934348006
C           -4.09127510566175       -1.73734948366368       -1.60694396758316
O           -3.20724751526648       -0.93069043305812       -1.01310452664586
O           -5.39861825333814       -3.13649893924229       -4.09272129527345
C           -6.37666325901966       -4.05484976029881       -4.46681046085397
H           -5.94675607872717       -4.90639489541854       -5.01652610915599
H           -6.90684459286838       -4.46437880711698       -3.58280739422667
H           -7.08970679468001       -3.53557277605230       -5.09669077936392
H           -3.85519621366828       -4.46955471247352       -3.81862746396142
H           -4.89592867959369       -4.20709339974850       -2.39527434321076
H           -2.58184100212383       -3.10501113180320       -2.30386359489813
H           -3.15201406731307       -1.98821397006642       -3.55343116278295
H           -4.93409006407962       -1.17299738497219       -2.06555840806031
H           -4.56202434862915       -2.45231381625354       -0.87178404149301
O           -1.29145453068392       -2.22208509331093       -0.02390885503504
H           -2.12157173558992       -1.69680171988380       -0.49501596258189
H           -0.89010734251041       -1.48962824315518        0.51103005714670
