 xtb: 6.7.1 (edcfbbe)
          10172523093D

 12 12  0     0  0            999 V2000
   -3.0557    1.7263   -0.0000 C   0  0  0  0  0  0  0  0  0  0  0  0
   -3.0313    0.3519    0.0000 C   0  0  0  0  0  0  0  0  0  0  0  0
    0.2765    2.3127   -0.0000 H   0  0  0  0  0  0  0  0  0  0  0  0
   -1.8788    3.7866   -0.0000 O   0  0  0  0  0  0  0  0  0  0  0  0
   -1.8306   -0.3427    0.0000 C   0  0  0  0  0  0  0  0  0  0  0  0
   -3.9680   -0.1939    0.0000 H   0  0  0  0  0  0  0  0  0  0  0  0
   -0.6464    0.3797   -0.0000 C   0  0  0  0  0  0  0  0  0  0  0  0
   -1.8179   -1.4231    0.0000 H   0  0  0  0  0  0  0  0  0  0  0  0
   -0.6541    1.7544   -0.0000 C   0  0  0  0  0  0  0  0  0  0  0  0
    0.3028   -0.1440   -0.0000 H   0  0  0  0  0  0  0  0  0  0  0  0
   -1.8638    2.5011   -0.0000 C   0  0  0  0  0  0  0  0  0  0  0  0
   -3.9991    2.2628    0.0000 H   0  0  0  0  0  0  0  0  0  0  0  0
  1  2  4  0  0  0  0
  2  5  4  0  0  0  0
  2  6  1  0  0  0  0
  5  7  4  0  0  0  0
  5  8  1  0  0  0  0
  3  9  1  0  0  0  0
  7  9  4  0  0  0  0
  7 10  1  0  0  0  0
  1 11  4  0  0  0  0
  4 11  4  0  0  0  0
  9 11  4  0  0  0  0
  1 12  1  0  0  0  0
M  CHG  1   1  -1
M  END
