17
 xtb: 6.7.1 (edcfbbe)
C           -4.07081853904204       -1.93642932736910        1.94098003048961
C           -3.78863781508534       -2.40256239838061        0.67910871092902
N           -7.23002811613366       -3.90007092427786        2.63101121821132
C           -5.21346570181930       -2.37085901096600        2.72959097288030
H           -3.42406796099962       -1.19776111378085        2.41810761047009
C           -4.62686414163578       -3.36204771232718        0.05590185851955
H           -2.89638220875657       -2.04245451986641        0.15350543754722
C           -5.73512706030832       -3.81878222100184        0.73592076828053
H           -4.38658336019479       -3.74785251322528       -0.93988511163865
C           -6.05297947790003       -3.35704325167844        2.03592163504668
H           -6.39177724582189       -4.56330770372181        0.28384366929488
O           -5.39413197389375       -1.91276456665831        3.89631866776739
O           -7.89723384707662       -4.76236201615241        1.99692859869986
O           -7.59588164558898       -3.52079442817708        3.76769686159546
O           -7.59935797701958       -0.84227249364676        4.86096838921409
H           -6.78181758336863       -1.21461497902296        4.56723527764429
H           -8.19975617262573       -1.59552849230528        4.96804352081903
