14
 xtb: 6.7.1 (edcfbbe)
C           -3.61736881108165       -3.88700262173554       -2.62184687381430
C           -4.26813654115458       -2.59246661773064       -3.16487247202816
O           -3.36424131658815       -1.58626625963889       -3.35528247391867
H           -6.14181600292936       -2.98798903723028       -2.12059799262246
C           -5.42329043717825       -2.19026715602840       -2.21934017411419
H           -4.73279568350687       -2.84910203570558       -4.15761626865532
H           -5.91163862247719       -1.29381702741590       -2.61140844103629
H           -4.99826721346482       -1.93874943644945       -1.24524993316029
H           -3.17565475545836       -3.67183345740624       -1.65181386953981
H           -4.37097237868932       -4.67192305803844       -2.51486519478488
H           -2.84003319790105       -4.21721406671025       -3.29771079433881
O           -2.41973063334053       -0.92979964239605       -1.10878687523076
H           -2.80299587989832       -1.22899254096870       -2.04897958571948
H           -1.68773833368403       -0.28960435317145       -1.37187805228007
