 xtb: 6.5.0 (97a52f5)
          10192520193D

 13  0  0     0  0            999 V2000
   -3.6039    3.4006   -1.0663 H   0  0  0  0  0  0  0  0  0  0  0  0
   -0.2474    3.4564   -0.2052 C   0  0  0  0  0  0  0  0  0  0  0  0
   -2.6540    3.0319   -0.6657 C   0  0  0  0  0  0  0  0  0  0  0  0
   -1.2561    0.3046    0.8112 H   0  0  0  0  0  0  0  0  0  0  0  0
    0.7312    1.7586    0.7447 H   0  0  0  0  0  0  0  0  0  0  0  0
   -2.5871    1.7374   -0.1214 C   0  0  0  0  0  0  0  0  0  0  0  0
   -1.5377    3.8616   -0.7092 C   0  0  0  0  0  0  0  0  0  0  0  0
   -1.3452    1.3073    0.3808 C   0  0  0  0  0  0  0  0  0  0  0  0
   -3.4645    1.0897   -0.0915 H   0  0  0  0  0  0  0  0  0  0  0  0
   -0.2206    2.1240    0.3456 C   0  0  0  0  0  0  0  0  0  0  0  0
   -1.6283    4.8650   -1.1403 H   0  0  0  0  0  0  0  0  0  0  0  0
    0.8661    4.2153   -0.2221 N   0  0  0  0  0  0  0  0  0  0  0  0
    0.6215    5.1171   -0.6547 H   0  0  0  0  0  0  0  0  0  0  0  0
M  CHG  1   1  -1
M  END
