 xtb: 6.7.1 (edcfbbe)
          10172521563D

 13 13  0     0  0            999 V2000
   -3.5913    3.3889   -1.0585 H   0  0  0  0  0  0  0  0  0  0  0  0
   -0.2707    3.4441   -0.2068 C   0  0  0  0  0  0  0  0  0  0  0  0
   -2.6446    3.0308   -0.6633 C   0  0  0  0  0  0  0  0  0  0  0  0
   -1.2578    0.3281    0.8017 H   0  0  0  0  0  0  0  0  0  0  0  0
    0.7194    1.7811    0.7307 H   0  0  0  0  0  0  0  0  0  0  0  0
   -2.5654    1.7539   -0.1224 C   0  0  0  0  0  0  0  0  0  0  0  0
   -1.5451    3.8505   -0.7076 C   0  0  0  0  0  0  0  0  0  0  0  0
   -1.3386    1.3232    0.3759 C   0  0  0  0  0  0  0  0  0  0  0  0
   -3.4346    1.1109   -0.0895 H   0  0  0  0  0  0  0  0  0  0  0  0
   -0.2303    2.1275    0.3401 C   0  0  0  0  0  0  0  0  0  0  0  0
   -1.6258    4.8499   -1.1357 H   0  0  0  0  0  0  0  0  0  0  0  0
    0.8288    4.1825   -0.2172 N   0  0  0  0  0  0  0  0  0  0  0  0
    0.6304    5.0982   -0.6419 H   0  0  0  0  0  0  0  0  0  0  0  0
  1  3  1  0  0  0  0
  3  6  4  0  0  0  0
  2  7  4  0  0  0  0
  3  7  2  0  0  0  0
  4  8  1  0  0  0  0
  6  8  4  0  0  0  0
  6  9  1  0  0  0  0
  2 10  4  0  0  0  0
  5 10  1  0  0  0  0
  8 10  2  0  0  0  0
  7 11  1  0  0  0  0
  2 12  4  0  0  0  0
 12 13  1  0  0  0  0
M  CHG  1   1  -1
M  END
