18
 xtb: 6.7.1 (edcfbbe)
C           -4.87735079534829       -2.64712888857980        2.19156452881676
C           -5.98328654683234       -3.11336339311894        3.10060156675635
H           -5.16159728697826       -1.83355191985476        1.51893362036389
H           -4.00567491499887       -2.27937367376026        2.78399140299865
H           -4.49550011586744       -3.46386055350387        1.55305043240671
C           -7.03805688189608       -3.88658117622961        2.65406367603786
H           -5.95556491826294       -2.82665093331758        4.15984121309792
H           -7.90231256336379       -3.86657599919564        4.64399123383522
C           -8.11253494822524       -4.30424946351192        3.66596958155427
H           -9.08366585251625       -3.89078047431120        3.31907849659337
C           -8.23751304022437       -5.82639275699150        3.79922900794358
O           -7.19716561338634       -4.32318329192420        1.43964291101353
H           -7.31997766551055       -6.26772148772677        4.17820151836703
H           -9.07482974070073       -6.11765310731024        4.43823974377186
H           -8.42791234107286       -6.27356712140532        2.78663914978938
O           -9.29295613038206       -5.23725948261029        0.35410006049115
H           -8.50455848718891       -4.92024402472312        0.82182636259217
H           -9.11308084900472       -5.18805062196728       -0.54287251841323
