 xtb: 6.5.0 (97a52f5)
          10192520193D

  9  0  0     0  0            999 V2000
   -3.8053   -0.6339   -0.7442 C   0  0  0  0  0  0  0  0  0  0  0  0
   -2.7258    0.1638   -0.7847 C   0  0  0  0  0  0  0  0  0  0  0  0
   -1.4179   -0.3604   -0.2269 C   0  0  0  0  0  0  0  0  0  0  0  0
   -2.6156    1.3344   -1.2321 O   0  0  0  0  0  0  0  0  0  0  0  0
   -3.7710   -1.6320   -0.3289 H   0  0  0  0  0  0  0  0  0  0  0  0
   -4.7511   -0.2775   -1.1383 H   0  0  0  0  0  0  0  0  0  0  0  0
   -1.5171   -1.3809    0.1623 H   0  0  0  0  0  0  0  0  0  0  0  0
   -0.6393   -0.3898   -0.9997 H   0  0  0  0  0  0  0  0  0  0  0  0
   -1.0614    0.2626    0.6031 H   0  0  0  0  0  0  0  0  0  0  0  0
M  CHG  1   1  -1
M  END
