 xtb: 6.5.0 (97a52f5)
          10192520193D

 15  0  0     0  0            999 V2000
   -5.2669   -6.4038    3.0047 C   0  0  0  0  0  0  0  0  0  0  0  0
   -5.1063   -5.0969    3.6320 C   0  0  0  0  0  0  0  0  0  0  0  0
   -5.9382   -7.1248    3.4486 H   0  0  0  0  0  0  0  0  0  0  0  0
   -4.6723   -8.0572    1.1317 C   0  0  0  0  0  0  0  0  0  0  0  0
   -4.2049   -4.1108    3.0479 C   0  0  0  0  0  0  0  0  0  0  0  0
   -5.6525   -4.8489    4.5299 H   0  0  0  0  0  0  0  0  0  0  0  0
   -3.4775   -4.4499    1.8453 C   0  0  0  0  0  0  0  0  0  0  0  0
   -4.0832   -3.1386    3.5061 H   0  0  0  0  0  0  0  0  0  0  0  0
   -3.6222   -5.7378    1.2017 C   0  0  0  0  0  0  0  0  0  0  0  0
   -2.7099   -3.6035    1.3428 O   0  0  0  0  0  0  0  0  0  0  0  0
   -4.5250   -6.7303    1.7876 C   0  0  0  0  0  0  0  0  0  0  0  0
   -5.3754   -8.7024    1.6684 H   0  0  0  0  0  0  0  0  0  0  0  0
   -5.0430   -7.9413    0.1078 H   0  0  0  0  0  0  0  0  0  0  0  0
   -3.7088   -8.5761    1.0925 H   0  0  0  0  0  0  0  0  0  0  0  0
   -3.0726   -5.9534    0.2946 H   0  0  0  0  0  0  0  0  0  0  0  0
M  CHG  1   1  -1
M  END
