 xtb: 6.7.1 (edcfbbe)
          10182502243D

 15 15  0     0  0            999 V2000
   -5.2610   -6.5010    2.9339 C   0  0  0  0  0  0  0  0  0  0  0  0
   -5.0837   -5.2497    3.5008 C   0  0  0  0  0  0  0  0  0  0  0  0
   -2.9446   -6.2863   -0.0659 C   0  0  0  0  0  0  0  0  0  0  0  0
   -4.6847   -7.7879    1.3231 H   0  0  0  0  0  0  0  0  0  0  0  0
   -4.2275   -4.3362    2.9304 C   0  0  0  0  0  0  0  0  0  0  0  0
   -5.6225   -4.9823    4.4032 H   0  0  0  0  0  0  0  0  0  0  0  0
   -3.4909   -4.6185    1.7505 C   0  0  0  0  0  0  0  0  0  0  0  0
   -4.0895   -3.3558    3.3760 H   0  0  0  0  0  0  0  0  0  0  0  0
   -3.6926   -5.9174    1.1858 C   0  0  0  0  0  0  0  0  0  0  0  0
   -2.6930   -3.7538    1.2274 O   0  0  0  0  0  0  0  0  0  0  0  0
   -4.5566   -6.8117    1.7793 C   0  0  0  0  0  0  0  0  0  0  0  0
   -5.9331   -7.2206    3.3798 H   0  0  0  0  0  0  0  0  0  0  0  0
   -2.3277   -5.4356   -0.3539 H   0  0  0  0  0  0  0  0  0  0  0  0
   -2.3009   -7.1508    0.1007 H   0  0  0  0  0  0  0  0  0  0  0  0
   -3.6314   -6.5183   -0.8807 H   0  0  0  0  0  0  0  0  0  0  0  0
  1  2  4  0  0  0  0
  2  5  4  0  0  0  0
  2  6  1  0  0  0  0
  5  7  4  0  0  0  0
  5  8  1  0  0  0  0
  3  9  1  0  0  0  0
  7  9  4  0  0  0  0
  7 10  4  0  0  0  0
  1 11  4  0  0  0  0
  4 11  1  0  0  0  0
  9 11  4  0  0  0  0
  1 12  1  0  0  0  0
  3 13  1  0  0  0  0
  3 14  1  0  0  0  0
  3 15  1  0  0  0  0
M  CHG  1   1  -1
M  END
