 xtb: 6.7.1 (edcfbbe)
          10182501053D

  9  8  0     0  0            999 V2000
   -5.1372   -2.5133   -0.9113 H   0  0  0  0  0  0  0  0  0  0  0  0
   -4.2206   -2.3890   -2.8865 C   0  0  0  0  0  0  0  0  0  0  0  0
   -2.9579   -2.2394   -2.4684 O   0  0  0  0  0  0  0  0  0  0  0  0
   -6.7781   -0.7048   -1.1819 H   0  0  0  0  0  0  0  0  0  0  0  0
   -5.2460   -1.9816   -1.8488 C   0  0  0  0  0  0  0  0  0  0  0  0
   -6.1209   -1.0024   -1.9834 C   0  0  0  0  0  0  0  0  0  0  0  0
   -6.2060   -0.4598   -2.9114 H   0  0  0  0  0  0  0  0  0  0  0  0
   -4.4320   -1.8060   -3.8375 H   0  0  0  0  0  0  0  0  0  0  0  0
   -4.4491   -3.4756   -3.1681 H   0  0  0  0  0  0  0  0  0  0  0  0
  2  3  1  0  0  0  0
  1  5  1  0  0  0  0
  2  5  1  0  0  0  0
  4  6  1  0  0  0  0
  5  6  2  0  0  0  0
  6  7  1  0  0  0  0
  2  8  1  0  0  0  0
  2  9  1  0  0  0  0
M  CHG  1   1  -1
M  END
