19
 xtb: 6.7.1 (edcfbbe)
C           -5.25545317255537       -3.69928435018654        0.54675697404102
C           -6.51453954228501       -4.12728681236056        1.29026422122175
H           -2.11352109873560       -1.49083667604595        2.23943786121651
H           -1.59395295001795       -0.74790635776378        0.72252865093607
H           -3.08332949852492       -0.21158860887372        1.50791334168682
C           -7.39482866310319       -5.18126259499016        0.47689698225524
H           -6.19980769387870       -4.62833201727416        2.23118099850479
H           -7.15314151474860       -3.30315637566133        1.55523606643873
O           -7.12893676776656       -5.30553287769579       -0.73114158533030
O           -8.26894897671992       -5.74828383186240        1.15748985008974
C           -4.49234587885367       -2.59493980212373        1.28644055346762
C           -3.23046040009988       -2.16263026790576        0.53554942382255
H           -5.12145808533608       -1.75727091830306        1.52629429241931
H           -4.14987271082983       -3.04200655079634        2.24783334720298
C           -2.47605681828534       -1.06092762821691        1.28044034152195
H           -2.61138858158096       -2.97900815006346        0.29143425776710
H           -3.58459051828434       -1.70093238773798       -0.43531516801077
H           -4.65029261778636       -4.51433903789375        0.28711145083467
H           -5.62376765484002       -3.23832354393504       -0.42759375452101
