14
Coordinates from ORCA-job inp
  C   -4.06776925425850     -1.93972492338130      1.93763263392336
  C   -3.77683857619814     -2.41533020528556      0.68129517269968
  N   -7.23164531889192     -3.89766981319897      2.62266238961877
  C   -5.21981963553978     -2.36385178361185      2.71665125917513
  H   -3.42387849835368     -1.19834548935220      2.41748284675504
  C   -4.61223091723182     -3.37728777541193      0.05859079667392
  H   -2.89126351661014     -2.04797267386568      0.15570150846395
  C   -5.72568620915460     -3.82934416863742      0.73382235269216
  H   -4.38006861341832     -3.75441211364617     -0.93777890531452
  C   -6.05289892325955     -3.35697443077719      2.02690824642020
  H   -6.38785642994539     -4.56754156552782      0.28341127096997
  O   -5.42178776168331     -1.88420969166501      3.86947756833409
  O   -7.89797816187044     -4.76169045340194      1.98963466676422
  O   -7.59507618358436     -3.51612291223695      3.75744119282403
