 xtb: 6.7.1 (edcfbbe)
          10182501123D

 15 15  0     0  0            999 V2000
   -4.1904   -4.1535   -3.2501 C   0  0  0  0  0  0  0  0  0  0  0  0
   -2.8930   -4.6346   -3.2186 C   0  0  0  0  0  0  0  0  0  0  0  0
   -3.7875   -1.3434   -1.4462 H   0  0  0  0  0  0  0  0  0  0  0  0
   -4.5272   -2.9698   -2.6056 C   0  0  0  0  0  0  0  0  0  0  0  0
   -4.9634   -4.6926   -3.7820 H   0  0  0  0  0  0  0  0  0  0  0  0
   -1.9086   -3.9351   -2.5420 C   0  0  0  0  0  0  0  0  0  0  0  0
   -2.6538   -5.5594   -3.7232 H   0  0  0  0  0  0  0  0  0  0  0  0
   -2.2301   -2.7494   -1.9030 C   0  0  0  0  0  0  0  0  0  0  0  0
   -0.8967   -4.3100   -2.5144 H   0  0  0  0  0  0  0  0  0  0  0  0
   -3.5284   -2.2725   -1.9365 C   0  0  0  0  0  0  0  0  0  0  0  0
   -1.4700   -2.1931   -1.3741 H   0  0  0  0  0  0  0  0  0  0  0  0
   -5.9257   -2.3843   -2.7260 C   0  0  0  0  0  0  0  0  0  0  0  0
   -6.6588   -3.2532   -2.8264 H   0  0  0  0  0  0  0  0  0  0  0  0
   -6.1925   -1.9177   -1.7169 H   0  0  0  0  0  0  0  0  0  0  0  0
   -6.0445   -1.5093   -3.7300 O   0  0  0  0  0  0  0  0  0  0  0  0
  1  2  4  0  0  0  0
  1  4  4  0  0  0  0
  1  5  1  0  0  0  0
  2  6  4  0  0  0  0
  2  7  1  0  0  0  0
  6  8  4  0  0  0  0
  6  9  1  0  0  0  0
  3 10  1  0  0  0  0
  4 10  4  0  0  0  0
  8 10  4  0  0  0  0
  8 11  1  0  0  0  0
  4 12  1  0  0  0  0
 12 13  1  0  0  0  0
 12 14  1  0  0  0  0
 12 15  1  0  0  0  0
M  CHG  1   1  -1
M  END
