16
 xtb: 6.7.1 (edcfbbe)
C           -6.30591606878496       -3.50767446573777        2.03582557077903
C           -6.02805220232901       -4.01357974425113        0.76164879146365
O           -9.35118605974469       -5.32032985855641        2.95426099113885
H           -7.64349485417211       -3.55576028473520        3.79211758196274
C           -6.86889629968563       -5.01919609029240        0.12824719837857
H           -5.13493774563693       -3.67055471437858        0.20762359109198
C           -8.01224659018728       -5.42470424553023        0.93012011638673
O           -6.62882410031394       -5.51948090315346       -1.02152510332282
C           -8.27081612152989       -4.90655227292175        2.20663820540128
H           -8.69517238061328       -6.16973779914263        0.47991828532732
C           -7.42004513130554       -3.93659250255631        2.78776029279662
H           -5.62395766406276       -2.76800465110473        2.48960509645255
H           -9.84592726127426       -5.97957694981843        2.39814705637359
O           -8.84853296302884       -6.51516688182680       -2.16027731245166
H           -8.05278083588333       -6.18896505381500       -1.70269476576844
H           -9.34859424523809       -5.75120296763226       -2.36551222168529
