5
 xtb: 6.7.1 (edcfbbe)
O           -3.00247186306019       -4.51787994720689        2.71717257586348
O           -4.17184585601636       -5.20769469460942        2.61739353783798
O           -3.67334909405598       -7.72135794291493        2.01029013084849
H           -3.83852869057743       -6.82895516789730        2.36164237009805
H           -2.78862102422316       -7.92909315655704        2.44713592391471
