14

C     -2.045161   -2.898364    1.589206
C     -2.447001   -2.182957    0.403473
C     -3.709638   -2.527801   -0.235859
C     -4.576855   -3.583800    0.325297
C     -4.102904   -4.312390    1.519659
C     -2.838997   -3.961847    2.153294
O     -6.400968   -4.983011    0.118710
O     -1.024626   -2.523924    2.198476
H     -1.838802   -1.374803    0.017187
H     -4.020558   -1.956261   -1.100183
N     -5.958695   -3.681951   -0.084222
H     -4.709355   -5.083641    1.975471
O     -6.051041   -3.399423   -1.441143
H     -2.519539   -4.465565    3.056803
