5
Coordinates from ORCA-job inp
  C   -3.79013924800855     -1.77333548454380      1.77267244547842
  S   -5.31027229737992     -2.43350235336308      2.58310109022853
  H   -4.00212816939330     -1.39784576709281      0.75932855576751
  H   -3.35812672450701     -0.93968416147944      2.34832869074131
  H   -3.01194956071121     -2.54722723352086      1.68174821778423
