 xtb: 6.7.1 (edcfbbe)
          10182503393D

  8  7  0     0  0            999 V2000
   -5.3412   -3.6568    0.5444 C   0  0  0  0  0  0  0  0  0  0  0  0
   -6.3470   -4.2228    1.1870 C   0  0  0  0  0  0  0  0  0  0  0  0
   -8.2910   -5.5542    1.2269 O   0  0  0  0  0  0  0  0  0  0  0  0
   -5.2369   -3.8199   -0.5166 H   0  0  0  0  0  0  0  0  0  0  0  0
   -7.2481   -5.3078   -0.7279 O   0  0  0  0  0  0  0  0  0  0  0  0
   -7.3750   -5.0988    0.4998 C   0  0  0  0  0  0  0  0  0  0  0  0
   -4.6114   -3.0335    1.0337 H   0  0  0  0  0  0  0  0  0  0  0  0
   -6.5119   -4.0995    2.2494 H   0  0  0  0  0  0  0  0  0  0  0  0
  1  2  2  0  0  0  0
  1  4  1  0  0  0  0
  2  6  1  0  0  0  0
  3  6  4  0  0  0  0
  5  6  4  0  0  0  0
  1  7  1  0  0  0  0
  2  8  1  0  0  0  0
M  CHG  1   1  -1
M  END
