8

C     -5.335240   -3.653732    0.536902
C     -6.359137   -4.233313    1.177839
O     -8.301524   -5.548166    1.267391
H     -5.207352   -3.799964   -0.532331
O     -7.244312   -5.315284   -0.749880
C     -7.403413   -5.121176    0.486659
H     -4.622187   -3.034403    1.064586
H     -6.489152   -4.087492    2.245415
