 xtb: 6.7.1 (edcfbbe)
          10182502583D

 13 13  0     0  0            999 V2000
   -6.3054   -3.5366    2.0396 C   0  0  0  0  0  0  0  0  0  0  0  0
   -6.0333   -4.0280    0.7861 C   0  0  0  0  0  0  0  0  0  0  0  0
   -9.3544   -5.3131    2.9066 O   0  0  0  0  0  0  0  0  0  0  0  0
   -7.6344   -3.5780    3.7437 H   0  0  0  0  0  0  0  0  0  0  0  0
   -6.8726   -4.9922    0.1635 C   0  0  0  0  0  0  0  0  0  0  0  0
   -5.1637   -3.6905    0.2339 H   0  0  0  0  0  0  0  0  0  0  0  0
   -7.9991   -5.4048    0.9239 C   0  0  0  0  0  0  0  0  0  0  0  0
   -6.6339   -5.4627   -1.0074 O   0  0  0  0  0  0  0  0  0  0  0  0
   -8.2550   -4.9009    2.1796 C   0  0  0  0  0  0  0  0  0  0  0  0
   -8.6618   -6.1403    0.4786 H   0  0  0  0  0  0  0  0  0  0  0  0
   -7.4129   -3.9582    2.7590 C   0  0  0  0  0  0  0  0  0  0  0  0
   -5.6403   -2.8028    2.4783 H   0  0  0  0  0  0  0  0  0  0  0  0
   -9.8470   -5.9654    2.3878 H   0  0  0  0  0  0  0  0  0  0  0  0
  1  2  4  0  0  0  0
  2  5  4  0  0  0  0
  2  6  1  0  0  0  0
  5  7  4  0  0  0  0
  5  8  4  0  0  0  0
  3  9  1  0  0  0  0
  7  9  4  0  0  0  0
  7 10  1  0  0  0  0
  1 11  4  0  0  0  0
  4 11  1  0  0  0  0
  9 11  4  0  0  0  0
  1 12  1  0  0  0  0
  3 13  1  0  0  0  0
M  CHG  1   1  -1
M  END
