 xtb: 6.5.0 (97a52f5)
          10192520193D

 11  0  0     0  0            999 V2000
   -3.3935   -4.2150   -2.9715 C   0  0  0  0  0  0  0  0  0  0  0  0
   -4.1612   -2.9301   -2.5640 C   0  0  0  0  0  0  0  0  0  0  0  0
   -3.4274   -1.9995   -1.8972 O   0  0  0  0  0  0  0  0  0  0  0  0
   -5.0690   -3.3068   -1.9901 H   0  0  0  0  0  0  0  0  0  0  0  0
   -4.6200   -2.5513   -3.5345 H   0  0  0  0  0  0  0  0  0  0  0  0
   -4.2380   -5.2164   -3.7586 C   0  0  0  0  0  0  0  0  0  0  0  0
   -2.5127   -3.9075   -3.5645 H   0  0  0  0  0  0  0  0  0  0  0  0
   -3.0006   -4.6848   -2.0514 H   0  0  0  0  0  0  0  0  0  0  0  0
   -4.6097   -4.7692   -4.6948 H   0  0  0  0  0  0  0  0  0  0  0  0
   -3.6722   -6.1215   -4.0267 H   0  0  0  0  0  0  0  0  0  0  0  0
   -5.1175   -5.5364   -3.1765 H   0  0  0  0  0  0  0  0  0  0  0  0
M  CHG  1   1  -1
M  END
