13
Coordinates from ORCA-job inp
  H   -3.60385340551004      3.40064689812308     -1.06632839323740
  C   -0.24742614610328      3.45641232434182     -0.20522700493371
  C   -2.65398321769607      3.03186067446067     -0.66570207862249
  H   -1.25607043181911      0.30462535095043      0.81116372742852
  H   0.73117477157399      1.75864297785302      0.74465575314963
  C   -2.58708787132532      1.73736143135470     -0.12141736196311
  C   -1.53769249119403      3.86162724005554     -0.70921969787088
  C   -1.34519388917471      1.30727862774658      0.38077624891031
  H   -3.46445551927543      1.08974294255285     -0.09153265398886
  C   -0.22055661729355      2.12401533810053      0.34558120299767
  H   -1.62830364487183      4.86497337237644     -1.14033908768407
  N   0.86605671176064      4.21528102987707     -0.22212595879323
  H   0.62150375092874      5.11706579220724     -0.65472669539237
