 xtb: 6.5.0 (97a52f5)
          10192520193D

 14  0  0     0  0            999 V2000
   -4.0989   -1.9471    1.9633 C   0  0  0  0  0  0  0  0  0  0  0  0
   -3.7776   -2.4146    0.6864 C   0  0  0  0  0  0  0  0  0  0  0  0
   -7.2450   -3.8774    2.6810 N   0  0  0  0  0  0  0  0  0  0  0  0
   -5.2332   -2.4136    2.6375 C   0  0  0  0  0  0  0  0  0  0  0  0
   -3.4644   -1.2095    2.4492 H   0  0  0  0  0  0  0  0  0  0  0  0
   -4.5949   -3.3590    0.0710 C   0  0  0  0  0  0  0  0  0  0  0  0
   -2.8918   -2.0409    0.1770 H   0  0  0  0  0  0  0  0  0  0  0  0
   -5.7304   -3.8336    0.7320 C   0  0  0  0  0  0  0  0  0  0  0  0
   -4.3495   -3.7269   -0.9240 H   0  0  0  0  0  0  0  0  0  0  0  0
   -6.0504   -3.3581    2.0216 C   0  0  0  0  0  0  0  0  0  0  0  0
   -6.3549   -4.5723    0.2307 H   0  0  0  0  0  0  0  0  0  0  0  0
   -5.4340   -1.9607    3.7264 O   0  0  0  0  0  0  0  0  0  0  0  0
   -7.9091   -4.7166    2.0509 O   0  0  0  0  0  0  0  0  0  0  0  0
   -7.5506   -3.4799    3.8100 O   0  0  0  0  0  0  0  0  0  0  0  0
M  CHG  1   1  -1
M  END
