 xtb: 6.5.0 (97a52f5)
          10192520193D

  7  0  0     0  0            999 V2000
   -0.2350   -0.9677    1.5305 C   0  0  0  0  0  0  0  0  0  0  0  0
   -0.4249   -0.7434   -1.5380 C   0  0  0  0  0  0  0  0  0  0  0  0
   -1.8845   -1.2275    1.8172 Cl  0  0  0  0  0  0  0  0  0  0  0  0
    0.4250   -1.8066    1.6682 H   0  0  0  0  0  0  0  0  0  0  0  0
    0.4024    0.5734    1.8291 Cl  0  0  0  0  0  0  0  0  0  0  0  0
   -1.1079    0.1717   -1.4774 O   0  0  0  0  0  0  0  0  0  0  0  0
    0.2577   -1.6588   -1.6139 O   0  0  0  0  0  0  0  0  0  0  0  0
M  CHG  1   1  -1
M  END
