 xtb: 6.7.1 (edcfbbe)
          10182502413D

  9  8  0     0  0            999 V2000
   -7.0469   -4.5372    1.5771 C   0  0  0  0  0  0  0  0  0  0  0  0
   -8.0528   -3.3877    1.5889 C   0  0  0  0  0  0  0  0  0  0  0  0
   -7.5444   -5.7339    1.0117 O   0  0  0  0  0  0  0  0  0  0  0  0
   -6.1384   -4.2355    1.0336 H   0  0  0  0  0  0  0  0  0  0  0  0
   -6.7823   -4.8440    2.5955 H   0  0  0  0  0  0  0  0  0  0  0  0
   -7.6743   -5.6217   -0.4154 O   0  0  0  0  0  0  0  0  0  0  0  0
   -8.3622   -3.1961    0.5635 H   0  0  0  0  0  0  0  0  0  0  0  0
   -8.9276   -3.6700    2.1685 H   0  0  0  0  0  0  0  0  0  0  0  0
   -7.5905   -2.5007    2.0104 H   0  0  0  0  0  0  0  0  0  0  0  0
  1  2  1  0  0  0  0
  1  3  1  0  0  0  0
  1  4  1  0  0  0  0
  1  5  1  0  0  0  0
  3  6  1  0  0  0  0
  2  7  1  0  0  0  0
  2  8  1  0  0  0  0
  2  9  1  0  0  0  0
M  CHG  1   1  -1
M  END
