 xtb: 6.7.1 (edcfbbe)
          10182503343D

 14 14  0     0  0            999 V2000
   -4.1741   -1.9863    1.9936 C   0  0  0  0  0  0  0  0  0  0  0  0
   -3.8403   -2.4371    0.7296 C   0  0  0  0  0  0  0  0  0  0  0  0
   -6.9788   -3.7722    2.5160 H   0  0  0  0  0  0  0  0  0  0  0  0
   -5.3072   -2.4703    2.6351 C   0  0  0  0  0  0  0  0  0  0  0  0
   -3.5725   -1.2539    2.5145 H   0  0  0  0  0  0  0  0  0  0  0  0
   -4.6383   -3.3765    0.0968 C   0  0  0  0  0  0  0  0  0  0  0  0
   -2.9573   -2.0544    0.2397 H   0  0  0  0  0  0  0  0  0  0  0  0
   -5.7700   -3.8639    0.7304 C   0  0  0  0  0  0  0  0  0  0  0  0
   -4.3783   -3.7287   -0.8899 H   0  0  0  0  0  0  0  0  0  0  0  0
   -6.1024   -3.4120    1.9944 C   0  0  0  0  0  0  0  0  0  0  0  0
   -6.3949   -4.5961    0.2412 H   0  0  0  0  0  0  0  0  0  0  0  0
   -5.6734   -1.9743    4.0248 C   0  0  0  0  0  0  0  0  0  0  0  0
   -4.9184   -1.1229    4.5514 O   0  0  0  0  0  0  0  0  0  0  0  0
   -6.7086   -2.4460    4.5518 O   0  0  0  0  0  0  0  0  0  0  0  0
  1  2  4  0  0  0  0
  1  4  4  0  0  0  0
  1  5  1  0  0  0  0
  2  6  4  0  0  0  0
  2  7  1  0  0  0  0
  6  8  4  0  0  0  0
  6  9  1  0  0  0  0
  3 10  1  0  0  0  0
  4 10  4  0  0  0  0
  8 10  4  0  0  0  0
  8 11  1  0  0  0  0
  4 12  1  0  0  0  0
 12 13  4  0  0  0  0
 12 14  4  0  0  0  0
M  CHG  1   1  -1
M  END
