5
Coordinates from ORCA-job inp
  N   -8.65426399193014     -3.36885641193662     -1.80834125871326
  C   -7.71320402544231     -2.63037675716607     -1.80568376048137
  C   -6.62948091446145     -1.79160934882018     -1.79906600068615
  H   -5.71759417273027     -2.07410364621167     -1.27435443739046
  H   -6.66763689543580     -0.83333583586545     -2.31518354272875
