12
 xtb: 6.7.1 (edcfbbe)
C           -3.99708507916312        0.51192222866921       -0.15549586444925
S           -2.52116668508857        1.37680366807102        0.49097008165518
H           -3.64732928277406       -0.34273415875869       -0.82481201012966
H           -4.46062617318874        0.03543563254413        0.77810337639597
H           -4.66025741769423        1.18774199439109       -0.57000095254292
C           -1.21674406267680        0.34531344792508       -0.28175996955516
H           -0.72859571338016       -0.18584552293818        0.60951814744834
O           -2.47086642918499        2.71324728307075       -0.20935992208358
H           -0.51745378936507        0.94359125562058       -0.75658337940372
O           -2.80858155897856       -1.46194359550315       -1.69004714379115
H           -1.71740004464902       -0.44824807100709       -0.90577356417528
H           -2.83682596676558       -1.01518615677729       -2.62726172169522
