14
Coordinates from ORCA-job inp
  C   -3.84664790557964     -4.07491020481633      1.87180525601221
  C   -2.87142430606459     -3.09517206181539      2.59085086845561
  H   -3.51475451693867     -4.22157005107608      0.83067762272190
  H   -3.81900239106255     -5.05532893663169      2.37542715320755
  H   -4.89445932272386     -3.72546612018381      1.85515621854136
  C   -3.39020982626101     -2.90457234559258      4.04670826251022
  H   -4.42676699796507     -2.52666286294242      4.10272303443655
  C   -2.98136524614269     -1.71710537984676      1.87211868189943
  H   -3.34564209202212     -3.86817156705711      4.58036073049838
  H   -2.73537572181112     -2.19405010899977      4.57766517084258
  O   -1.58392855205258     -3.56687950804024      2.57599719027868
  H   -4.00487192290506     -1.30175124002910      1.86158575859246
  H   -2.31953940776382     -0.99069342329453      2.37200310989520
  H   -2.64126679070719     -1.81983718967417      0.82825494210785
