9

C     -4.002440    0.638678    0.128275
S     -2.583740    1.720905    0.414304
H     -3.962810    0.230101   -0.884512
H     -3.996493   -0.172330    0.860250
H     -4.917082    1.224632    0.246475
C     -1.348289    0.481790    0.011685
H     -1.413106   -0.539383    0.413482
O     -2.498899    2.686978   -0.728843
H     -0.502339    0.740894   -0.641378

