10
 xtb: 6.7.1 (edcfbbe)
C           -5.61176420084619       -3.92240558019248        0.57954985603203
C           -7.00538821439179       -4.22133785103279        1.13787320503593
H           -4.93032656671388       -4.69902480415422        0.65573511338857
H           -5.78855333273324       -3.72008361082502       -0.52908444306395
H           -5.24417150222158       -2.98104634653791        0.99650616897617
C           -7.63478086848859       -5.51184894327172        0.53963284983179
H           -6.85232340525290       -4.47374458210586        2.24712456109179
H           -7.69904886580058       -3.45221007783202        1.08197814637503
O           -7.15376903461601       -5.96903627397689       -0.51979149501644
O           -8.61116068791329       -5.99346911533710        1.17149632913401
