 xtb: 6.7.1 (edcfbbe)
          10182503303D

 10  9  0     0  0            999 V2000
   -5.6580   -3.8681    0.5225 C   0  0  0  0  0  0  0  0  0  0  0  0
   -6.9552   -4.2796    1.1974 C   0  0  0  0  0  0  0  0  0  0  0  0
   -4.9457   -4.6888    0.5643 H   0  0  0  0  0  0  0  0  0  0  0  0
   -5.8449   -3.6462   -0.5257 H   0  0  0  0  0  0  0  0  0  0  0  0
   -5.2335   -2.9935    1.0095 H   0  0  0  0  0  0  0  0  0  0  0  0
   -7.6277   -5.5203    0.5487 C   0  0  0  0  0  0  0  0  0  0  0  0
   -6.7940   -4.5271    2.2493 H   0  0  0  0  0  0  0  0  0  0  0  0
   -7.6927   -3.4740    1.1576 H   0  0  0  0  0  0  0  0  0  0  0  0
   -7.1015   -6.0241   -0.4638 O   0  0  0  0  0  0  0  0  0  0  0  0
   -8.6739   -5.9268    1.1047 O   0  0  0  0  0  0  0  0  0  0  0  0
  1  2  1  0  0  0  0
  1  3  1  0  0  0  0
  1  4  1  0  0  0  0
  1  5  1  0  0  0  0
  2  6  1  0  0  0  0
  2  7  1  0  0  0  0
  2  8  1  0  0  0  0
  6  9  2  0  0  0  0
  6 10  4  0  0  0  0
M  CHG  1   1  -1
M  END
