10

C     -5.669516   -3.877926    0.521747
C     -6.967935   -4.308641    1.175878
H     -4.923364   -4.678180    0.563744
H     -5.825347   -3.614912   -0.529580
H     -5.257829   -3.002223    1.033098
C     -7.642110   -5.532826    0.550458
H     -6.778668   -4.529502    2.233085
H     -7.680992   -3.476530    1.138346
O     -7.087770   -6.023814   -0.470692
O     -8.693426   -5.904311    1.148301
