 xtb: 6.5.0 (97a52f5)
          10192520193D

 15  0  0     0  0            999 V2000
   -5.1962   -6.3265    2.9655 C   0  0  0  0  0  0  0  0  0  0  0  0
   -5.0172   -5.0152    3.5872 C   0  0  0  0  0  0  0  0  0  0  0  0
   -6.1180   -7.3309    3.5618 C   0  0  0  0  0  0  0  0  0  0  0  0
   -4.4644   -6.6547    1.7419 C   0  0  0  0  0  0  0  0  0  0  0  0
   -4.1123   -4.0390    2.9883 C   0  0  0  0  0  0  0  0  0  0  0  0
   -5.5630   -4.7394    4.4778 H   0  0  0  0  0  0  0  0  0  0  0  0
   -3.3949   -4.3906    1.7833 C   0  0  0  0  0  0  0  0  0  0  0  0
   -3.9973   -3.0570    3.4272 H   0  0  0  0  0  0  0  0  0  0  0  0
   -3.5661   -5.6744    1.1411 C   0  0  0  0  0  0  0  0  0  0  0  0
   -2.6466   -3.5431    1.2545 O   0  0  0  0  0  0  0  0  0  0  0  0
   -4.5893   -7.6133    1.2598 H   0  0  0  0  0  0  0  0  0  0  0  0
   -6.6061   -6.9533    4.4662 H   0  0  0  0  0  0  0  0  0  0  0  0
   -6.9036   -7.6025    2.8488 H   0  0  0  0  0  0  0  0  0  0  0  0
   -5.5712   -8.2398    3.8337 H   0  0  0  0  0  0  0  0  0  0  0  0
   -3.0574   -5.8939    0.2120 H   0  0  0  0  0  0  0  0  0  0  0  0
M  CHG  1   1  -1
M  END
