 xtb: 6.7.1 (edcfbbe)
          10182505343D

  5  4  0     0  0            999 V2000
   -3.7777   -1.7675    1.7669 C   0  0  0  0  0  0  0  0  0  0  0  0
   -5.2674   -2.4152    2.5595 S   0  0  0  0  0  0  0  0  0  0  0  0
   -4.0231   -1.4055    0.7664 H   0  0  0  0  0  0  0  0  0  0  0  0
   -3.3753   -0.9443    2.3608 H   0  0  0  0  0  0  0  0  0  0  0  0
   -3.0291   -2.5589    1.6917 H   0  0  0  0  0  0  0  0  0  0  0  0
  1  2  1  0  0  0  0
  1  3  1  0  0  0  0
  1  4  1  0  0  0  0
  1  5  1  0  0  0  0
M  CHG  1   1  -1
M  END
