16
 xtb: 6.7.1 (edcfbbe)
H           -3.62234386636149        3.49749578345718       -0.89328921007193
C           -0.26365017737896        3.40633149125171       -0.27406937742157
C           -2.66396022560396        3.07190113757715       -0.62954168091839
H           -1.29405066822391        0.33141581598916        0.78810016022847
H            0.73614047269397        1.69482580376319        0.56167147807925
C           -2.60190059587514        1.80198076742722       -0.07229183278199
C           -1.53824442044359        3.85413447787584       -0.72931540337073
C           -1.37030616515461        1.33683028377337        0.38702210010215
H           -3.49393770713952        1.21367985702102        0.06261961795460
C           -0.23578614131537        2.10245350623253        0.29319924702320
H           -1.60289486565730        4.86575656087507       -1.12611690168079
N            0.85911182776264        4.11514987177572       -0.34611105284629
H            0.70421339462013        5.01258596818980       -0.81188993989081
O            3.22634355803408        3.40392718516612        0.59203966165095
H            2.26666008329421        3.69451972134637        0.29700302424949
H            3.73545718860090        3.35240512145482       -0.11179176787387
