 xtb: 6.7.1 (edcfbbe)
          10182502513D

 15 15  0     0  0            999 V2000
   -5.1812   -6.3007    2.9458 C   0  0  0  0  0  0  0  0  0  0  0  0
   -4.9935   -5.0480    3.5159 C   0  0  0  0  0  0  0  0  0  0  0  0
   -6.1059   -7.3182    3.5538 C   0  0  0  0  0  0  0  0  0  0  0  0
   -4.4753   -6.5842    1.7805 C   0  0  0  0  0  0  0  0  0  0  0  0
   -4.1462   -4.1181    2.9585 C   0  0  0  0  0  0  0  0  0  0  0  0
   -5.5275   -4.7912    4.4248 H   0  0  0  0  0  0  0  0  0  0  0  0
   -3.4147   -4.3812    1.7710 C   0  0  0  0  0  0  0  0  0  0  0  0
   -4.0147   -3.1450    3.4215 H   0  0  0  0  0  0  0  0  0  0  0  0
   -3.6244   -5.6689    1.2088 C   0  0  0  0  0  0  0  0  0  0  0  0
   -2.6185   -3.5175    1.2423 O   0  0  0  0  0  0  0  0  0  0  0  0
   -4.5999   -7.5535    1.3096 H   0  0  0  0  0  0  0  0  0  0  0  0
   -6.5730   -6.9174    4.4501 H   0  0  0  0  0  0  0  0  0  0  0  0
   -6.8878   -7.5960    2.8470 H   0  0  0  0  0  0  0  0  0  0  0  0
   -5.5583   -8.2223    3.8204 H   0  0  0  0  0  0  0  0  0  0  0  0
   -3.0832   -5.9112    0.2994 H   0  0  0  0  0  0  0  0  0  0  0  0
  1  2  4  0  0  0  0
  1  3  1  0  0  0  0
  1  4  4  0  0  0  0
  2  5  4  0  0  0  0
  2  6  1  0  0  0  0
  5  7  4  0  0  0  0
  5  8  1  0  0  0  0
  4  9  4  0  0  0  0
  7  9  4  0  0  0  0
  7 10  4  0  0  0  0
  4 11  1  0  0  0  0
  3 12  1  0  0  0  0
  3 13  1  0  0  0  0
  3 14  1  0  0  0  0
  9 15  1  0  0  0  0
M  CHG  1   1  -1
M  END
