 xtb: 6.5.0 (97a52f5)
          10192520193D

 15  0  0     0  0            999 V2000
   -5.2572   -6.5066    2.9251 C   0  0  0  0  0  0  0  0  0  0  0  0
   -5.0944   -5.2613    3.5079 C   0  0  0  0  0  0  0  0  0  0  0  0
   -2.9460   -6.2927   -0.0680 C   0  0  0  0  0  0  0  0  0  0  0  0
   -4.6674   -7.7794    1.3051 H   0  0  0  0  0  0  0  0  0  0  0  0
   -4.2229   -4.3297    2.9283 C   0  0  0  0  0  0  0  0  0  0  0  0
   -5.6339   -4.9963    4.4098 H   0  0  0  0  0  0  0  0  0  0  0  0
   -3.4746   -4.5747    1.7564 C   0  0  0  0  0  0  0  0  0  0  0  0
   -4.1130   -3.3566    3.4071 H   0  0  0  0  0  0  0  0  0  0  0  0
   -3.6681   -5.8620    1.1882 C   0  0  0  0  0  0  0  0  0  0  0  0
   -2.6962   -3.6822    1.2775 O   0  0  0  0  0  0  0  0  0  0  0  0
   -4.5466   -6.8056    1.7695 C   0  0  0  0  0  0  0  0  0  0  0  0
   -5.9276   -7.2364    3.3626 H   0  0  0  0  0  0  0  0  0  0  0  0
   -2.2809   -5.5257   -0.4743 H   0  0  0  0  0  0  0  0  0  0  0  0
   -2.3354   -7.1776    0.1418 H   0  0  0  0  0  0  0  0  0  0  0  0
   -3.6753   -6.5396   -0.8471 H   0  0  0  0  0  0  0  0  0  0  0  0
M  CHG  1   1  -1
M  END
