4
Coordinates from ORCA-job inp
  C   -5.74146009175608     -2.81578495449815      2.60890768246819
  Cl  -4.35540945480888     -1.76342574099226      2.51301477362038
  Cl  -6.22168146652113     -3.75147765386857      1.21403118850550
  Cl  -6.79735998691384     -2.73090265064099      3.99621835540591
