 xtb: 6.5.0 (97a52f5)
          10192520193D

 12  0  0     0  0            999 V2000
   -3.2313   -2.2649    0.6384 C   0  0  0  0  0  0  0  0  0  0  0  0
   -2.7138   -3.1400   -0.3208 C   0  0  0  0  0  0  0  0  0  0  0  0
   -3.4073   -4.3043   -0.6532 C   0  0  0  0  0  0  0  0  0  0  0  0
   -4.6196   -4.5932   -0.0255 C   0  0  0  0  0  0  0  0  0  0  0  0
   -5.1385   -3.7192    0.9339 C   0  0  0  0  0  0  0  0  0  0  0  0
   -1.7708   -2.9063   -0.8029 H   0  0  0  0  0  0  0  0  0  0  0  0
   -4.4427   -2.5572    1.2632 C   0  0  0  0  0  0  0  0  0  0  0  0
   -3.0052   -4.9830   -1.3976 H   0  0  0  0  0  0  0  0  0  0  0  0
   -2.6865   -1.3599    0.8929 H   0  0  0  0  0  0  0  0  0  0  0  0
   -6.0830   -3.9498    1.4191 H   0  0  0  0  0  0  0  0  0  0  0  0
   -5.0784   -1.4843    2.4400 S   0  0  0  0  0  0  0  0  0  0  0  0
   -5.1664   -5.4956   -0.2768 H   0  0  0  0  0  0  0  0  0  0  0  0
M  CHG  1   1  -1
M  END
