 xtb: 6.7.1 (edcfbbe)
          10172521453D

  5  4  0     0  0            999 V2000
   -8.6324   -3.3488   -1.8092 N   0  0  0  0  0  0  0  0  0  0  0  0
   -7.7002   -2.6227   -1.8046 C   0  0  0  0  0  0  0  0  0  0  0  0
   -6.6445   -1.8039   -1.7982 C   0  0  0  0  0  0  0  0  0  0  0  0
   -5.7327   -2.0719   -1.2818 H   0  0  0  0  0  0  0  0  0  0  0  0
   -6.6724   -0.8507   -2.3086 H   0  0  0  0  0  0  0  0  0  0  0  0
  1  2  3  0  0  0  0
  2  3  2  0  0  0  0
  3  4  1  0  0  0  0
  3  5  1  0  0  0  0
M  CHG  1   1  -1
M  END
