7
 xtb: 6.7.1 (edcfbbe)
C           -0.29046703464397       -0.94729148235650        0.90635597352264
C           -0.38780305877774       -0.79094147397690       -0.66377363781792
Cl          -1.91314724816669       -1.16481326684814        1.59448644776463
H            0.37231923804049       -1.76782994220174        1.18378320219223
Cl           0.44909523522002        0.49096999227782        1.56220150061746
O           -1.19384883748322        0.05820769209208       -1.07730547116867
O            0.38128083745636       -1.54990545493373       -1.29033359489337
