 xtb: 6.7.1 (edcfbbe)
          10182521143D

  7  6  0     0  0            999 V2000
   -0.2664   -0.9285    0.9064 C   0  0  0  0  0  0  0  0  0  0  0  0
   -0.3844   -0.7879   -0.6636 C   0  0  0  0  0  0  0  0  0  0  0  0
   -1.8643   -1.2313    1.5756 Cl  0  0  0  0  0  0  0  0  0  0  0  0
    0.3855   -1.7575    1.1838 H   0  0  0  0  0  0  0  0  0  0  0  0
    0.3967    0.5532    1.5804 Cl  0  0  0  0  0  0  0  0  0  0  0  0
   -1.0716    0.1476   -1.0792 O   0  0  0  0  0  0  0  0  0  0  0  0
    0.2372   -1.6545   -1.2876 O   0  0  0  0  0  0  0  0  0  0  0  0
  1  2  1  0  0  0  0
  1  3  1  0  0  0  0
  1  4  1  0  0  0  0
  1  5  1  0  0  0  0
  2  6  2  0  0  0  0
  2  7  2  0  0  0  0
M  CHG  1   1  -1
M  END
