 xtb: 6.7.1 (edcfbbe)
          10182518183D

  8  7  0     0  0            999 V2000
   -2.1684    1.5070    0.0202 C   0  0  0  0  0  0  0  0  0  0  0  0
   -0.7201    1.7321   -0.3798 C   0  0  0  0  0  0  0  0  0  0  0  0
   -2.2237    0.9872    0.9738 H   0  0  0  0  0  0  0  0  0  0  0  0
   -2.6893    2.4568    0.1148 H   0  0  0  0  0  0  0  0  0  0  0  0
   -2.6709    0.9064   -0.7351 H   0  0  0  0  0  0  0  0  0  0  0  0
    0.1724    2.7265    0.8286 S   0  0  0  0  0  0  0  0  0  0  0  0
   -0.1845    0.7852   -0.4655 H   0  0  0  0  0  0  0  0  0  0  0  0
   -0.6533    2.2598   -1.3327 H   0  0  0  0  0  0  0  0  0  0  0  0
  1  2  1  0  0  0  0
  1  3  1  0  0  0  0
  1  4  1  0  0  0  0
  1  5  1  0  0  0  0
  2  6  1  0  0  0  0
  2  7  1  0  0  0  0
  2  8  1  0  0  0  0
M  END
