 xtb: 6.5.0 (97a52f5)
          10192520193D

  9  0  0     0  0            999 V2000
   -5.2992   -3.6174    0.4918 C   0  0  0  0  0  0  0  0  0  0  0  0
   -6.4580   -4.1712    1.2671 C   0  0  0  0  0  0  0  0  0  0  0  0
   -8.3917   -5.6096    1.2092 O   0  0  0  0  0  0  0  0  0  0  0  0
   -6.6616   -3.8994    2.4518 O   0  0  0  0  0  0  0  0  0  0  0  0
   -7.1801   -5.2979   -0.6897 O   0  0  0  0  0  0  0  0  0  0  0  0
   -7.4333   -5.1063    0.5441 C   0  0  0  0  0  0  0  0  0  0  0  0
   -4.6684   -3.0196    1.1557 H   0  0  0  0  0  0  0  0  0  0  0  0
   -4.6985   -4.4350    0.0856 H   0  0  0  0  0  0  0  0  0  0  0  0
   -5.6658   -2.9783   -0.3153 H   0  0  0  0  0  0  0  0  0  0  0  0
M  CHG  1   1  -1
M  END
