 xtb: 6.7.1 (edcfbbe)
          10182504323D

  8  7  0     0  0            999 V2000
   -3.8211   -0.6602   -0.6781 C   0  0  0  0  0  0  0  0  0  0  0  0
   -2.5260    0.1378   -0.8465 C   0  0  0  0  0  0  0  0  0  0  0  0
   -1.4600   -0.4680   -0.4162 N   0  0  0  0  0  0  0  0  0  0  0  0
   -2.5945    1.2909   -1.3784 O   0  0  0  0  0  0  0  0  0  0  0  0
   -4.5487   -0.0497   -0.1473 H   0  0  0  0  0  0  0  0  0  0  0  0
   -4.2196   -0.8961   -1.6631 H   0  0  0  0  0  0  0  0  0  0  0  0
   -3.6132   -1.5718   -0.1287 H   0  0  0  0  0  0  0  0  0  0  0  0
   -0.6382    0.1267   -0.5666 H   0  0  0  0  0  0  0  0  0  0  0  0
  1  2  1  0  0  0  0
  2  3  2  0  0  0  0
  2  4  4  0  0  0  0
  1  5  1  0  0  0  0
  1  6  1  0  0  0  0
  1  7  1  0  0  0  0
  3  8  1  0  0  0  0
M  CHG  1   1  -1
M  END
