15
 xtb: 6.7.1 (edcfbbe)
C           -3.07741278267879        1.69474565820752        0.03078369577249
C           -3.01751473390298        0.31994395163117        0.04599439217724
H            0.22992914756512        2.37029293573175       -0.08704310761962
O           -1.93446960151326        3.78413746194536       -0.03723778594781
C           -1.80031569948158       -0.34357873420912        0.01381401728855
H           -3.93132174992802       -0.26198550650916        0.09163441810268
C           -0.63437391190390        0.40511160817417       -0.02999101094472
H           -1.74780221442290       -1.42655173515659        0.03725556331134
C           -0.67798096875948        1.78043373760010       -0.04588336647152
H            0.33367820451912       -0.08827787212965       -0.05061614867197
C           -1.90490280481748        2.48623740729286       -0.01845376653962
H           -4.03547525389549        2.19282464840081        0.05752495655809
O           -4.30596877414117        4.91043988024908       -0.08628307449151
H           -3.41504604062109        4.47074696798856       -0.04050441145674
H           -4.24275298242853        5.47372164110817       -0.94049572814560
