11
 xtb: 6.7.1 (edcfbbe)
C           -2.18337861592725        1.49855401708934       -0.03773733744149
C           -0.73929329628221        1.76111656891856       -0.43592012109808
H           -2.20417084807843        0.88832225049838        0.87551604561580
H           -2.67893288513120        2.44679186281745        0.19498584314508
H           -2.71891136925591        0.98928673623553       -0.82417067118700
S            0.20058357934523        2.62560163159175        0.85473461333482
H           -0.22695024522064        0.81788637149934       -0.64547676813371
H           -0.70327085175898        2.38570289795652       -1.33472003532587
O           -0.47594803741989        0.60542320726578        3.10022915661178
H           -0.24635203057905        1.26282225795539        2.38659681757356
H            0.29321001197682        0.66111555425315        3.73646816198500
