 xtb: 6.5.0 (97a52f5)
          10192520193D

 12  0  0     0  0            999 V2000
   -3.0667    1.7369   -0.0000 C   0  0  0  0  0  0  0  0  0  0  0  0
   -3.0420    0.3435    0.0000 C   0  0  0  0  0  0  0  0  0  0  0  0
    0.3013    2.3189   -0.0000 H   0  0  0  0  0  0  0  0  0  0  0  0
   -1.8794    3.8214   -0.0000 O   0  0  0  0  0  0  0  0  0  0  0  0
   -1.8303   -0.3656   -0.0000 C   0  0  0  0  0  0  0  0  0  0  0  0
   -3.9887   -0.2064    0.0000 H   0  0  0  0  0  0  0  0  0  0  0  0
   -0.6354    0.3715   -0.0000 C   0  0  0  0  0  0  0  0  0  0  0  0
   -1.8176   -1.4568    0.0000 H   0  0  0  0  0  0  0  0  0  0  0  0
   -0.6432    1.7652   -0.0000 C   0  0  0  0  0  0  0  0  0  0  0  0
    0.3238   -0.1561   -0.0000 H   0  0  0  0  0  0  0  0  0  0  0  0
   -1.8641    2.5306   -0.0000 C   0  0  0  0  0  0  0  0  0  0  0  0
   -4.0239    2.2683   -0.0000 H   0  0  0  0  0  0  0  0  0  0  0  0
M  CHG  1   1  -1
M  END
