9
 xtb: 6.7.1 (edcfbbe)
C           -5.25534593636052       -3.67834400907193        0.53681509503854
C           -6.45614586978914       -4.15169637271694        1.29806613087653
O           -8.29515760793085       -5.67550593779169        1.19959956449876
O           -6.68919537715783       -3.83430287914028        2.45268365397099
O           -7.23325077170820       -5.18845975725197       -0.71852307923042
C           -7.42282578351912       -5.09879192466264        0.51487375814997
H           -4.68961603046521       -2.95655692694760        1.13174787398171
H           -4.69576814836673       -4.48676389092539        0.18088635213811
H           -5.67014575712225       -3.13681860283721       -0.37311235523261
