17
 xtb: 6.7.1 (edcfbbe)
C           -2.07798875122351       -2.78842773114119        1.49660262709643
C           -2.51431333247660       -2.18414898956902        0.33641676065614
C           -3.70748004536448       -2.55093872345525       -0.25640100812091
C           -4.45959967237672       -3.55787525232113        0.35912863109557
C           -4.04080709210667       -4.17989757866841        1.52648966332284
C           -2.82029286013545       -3.81615590609309        2.14839435941429
O           -2.41697108458498       -4.37708122669551        3.22347603536416
H           -1.14286633325004       -2.49479572251343        1.95376372225031
H           -1.90670093711500       -1.41683624852732       -0.11646543906676
H           -4.06188852001815       -2.09878169136370       -1.16547845623563
N           -5.67818964848923       -3.94945659003473       -0.22622628006311
H           -4.65118001177876       -4.95024995820623        1.97604683861593
O           -6.05596652411575       -3.39402009827509       -1.25691169400009
O           -6.34322529953026       -4.84200178620956        0.29769104735920
O           -0.05790944884345       -3.58639798138340        4.20088635215668
H           -0.94858125496207       -3.85796722016880        3.85044961631663
H            0.06275168322051       -4.14563217700911        5.02343074065733
