9
Coordinates from ORCA-job inp
  C   -5.25467309328591     -3.66803448100863      0.54357610156405
  C   -6.50358146894081     -4.10855544996790      1.25994813904502
  O   -7.99370672737210     -5.99649038446861      1.23433544185328
  O   -6.84618406574322     -3.60911795803095      2.32907332669797
  O   -7.60793439806111     -4.89941011790312     -0.70857865325977
  C   -7.40917284976860     -5.14367280212814      0.51887270815916
  H   -4.61453332754833     -3.05872170661206      1.19348025402050
  H   -4.69735879201896     -4.55042571297019      0.18835095191952
  H   -5.52945627726090     -3.10021538691031     -0.35882026999974
