 xtb: 6.5.0 (97a52f5)
          10192520193D

  8  0  0     0  0            999 V2000
   -3.8017   -0.6527   -0.6847 C   0  0  0  0  0  0  0  0  0  0  0  0
   -2.5509    0.1794   -0.7987 C   0  0  0  0  0  0  0  0  0  0  0  0
   -1.4569   -0.5387   -0.5827 N   0  0  0  0  0  0  0  0  0  0  0  0
   -2.5819    1.3670   -1.0999 O   0  0  0  0  0  0  0  0  0  0  0  0
   -4.6264   -0.0131   -0.3545 H   0  0  0  0  0  0  0  0  0  0  0  0
   -4.0474   -1.0803   -1.6612 H   0  0  0  0  0  0  0  0  0  0  0  0
   -3.6906   -1.4562    0.0509 H   0  0  0  0  0  0  0  0  0  0  0  0
   -0.6654    0.1042   -0.6941 H   0  0  0  0  0  0  0  0  0  0  0  0
M  CHG  1   1  -1
M  END
