 xtb: 6.7.1 (edcfbbe)
          10182504563D

 15 15  0     0  0            999 V2000
   -2.0504   -2.8209    1.5589 C   0  0  0  0  0  0  0  0  0  0  0  0
   -2.5422   -2.1661    0.3727 C   0  0  0  0  0  0  0  0  0  0  0  0
   -3.7098   -2.5216   -0.2045 C   0  0  0  0  0  0  0  0  0  0  0  0
   -4.5038   -3.5654    0.3417 C   0  0  0  0  0  0  0  0  0  0  0  0
   -4.0491   -4.2300    1.5096 C   0  0  0  0  0  0  0  0  0  0  0  0
   -2.8817   -3.8771    2.0904 C   0  0  0  0  0  0  0  0  0  0  0  0
   -6.3728   -4.8518    0.2523 O   0  0  0  0  0  0  0  0  0  0  0  0
   -2.5391   -4.3876    2.9815 H   0  0  0  0  0  0  0  0  0  0  0  0
   -1.9340   -1.3747   -0.0355 H   0  0  0  0  0  0  0  0  0  0  0  0
   -4.0793   -2.0306   -1.0930 H   0  0  0  0  0  0  0  0  0  0  0  0
   -5.6737   -3.9209   -0.2394 N   0  0  0  0  0  0  0  0  0  0  0  0
   -4.6702   -5.0198    1.9079 H   0  0  0  0  0  0  0  0  0  0  0  0
   -6.0770   -3.3257   -1.2777 O   0  0  0  0  0  0  0  0  0  0  0  0
   -0.9198   -2.4366    2.0666 N   0  0  0  0  0  0  0  0  0  0  0  0
   -0.6758   -2.9721    2.8999 H   0  0  0  0  0  0  0  0  0  0  0  0
  1  2  1  0  0  0  0
  2  3  2  0  0  0  0
  3  4  4  0  0  0  0
  4  5  4  0  0  0  0
  1  6  1  0  0  0  0
  5  6  2  0  0  0  0
  6  8  1  0  0  0  0
  2  9  1  0  0  0  0
  3 10  1  0  0  0  0
  4 11  4  0  0  0  0
  7 11  4  0  0  0  0
  5 12  1  0  0  0  0
 11 13  4  0  0  0  0
  1 14  2  0  0  0  0
 14 15  1  0  0  0  0
M  CHG  1   1  -1
M  END
