 xtb: 6.7.1 (edcfbbe)
          10182506213D

 14 14  0     0  0            999 V2000
   -4.0790   -1.9483    1.9349 C   0  0  0  0  0  0  0  0  0  0  0  0
   -3.7920   -2.4202    0.6953 C   0  0  0  0  0  0  0  0  0  0  0  0
   -7.1841   -3.8690    2.6127 N   0  0  0  0  0  0  0  0  0  0  0  0
   -5.2281   -2.3797    2.6932 C   0  0  0  0  0  0  0  0  0  0  0  0
   -3.4514   -1.2156    2.4208 H   0  0  0  0  0  0  0  0  0  0  0  0
   -4.6202   -3.3766    0.0731 C   0  0  0  0  0  0  0  0  0  0  0  0
   -2.9175   -2.0614    0.1727 H   0  0  0  0  0  0  0  0  0  0  0  0
   -5.7225   -3.8294    0.7299 C   0  0  0  0  0  0  0  0  0  0  0  0
   -4.3795   -3.7418   -0.9115 H   0  0  0  0  0  0  0  0  0  0  0  0
   -6.0555   -3.3629    2.0204 C   0  0  0  0  0  0  0  0  0  0  0  0
   -6.3849   -4.5611    0.2914 H   0  0  0  0  0  0  0  0  0  0  0  0
   -5.4556   -1.9178    3.8348 O   0  0  0  0  0  0  0  0  0  0  0  0
   -7.8712   -4.7194    1.9972 O   0  0  0  0  0  0  0  0  0  0  0  0
   -7.5435   -3.5069    3.7484 O   0  0  0  0  0  0  0  0  0  0  0  0
  1  2  2  0  0  0  0
  1  4  1  0  0  0  0
  1  5  1  0  0  0  0
  2  6  4  0  0  0  0
  2  7  1  0  0  0  0
  6  8  2  0  0  0  0
  6  9  1  0  0  0  0
  3 10  1  0  0  0  0
  4 10  1  0  0  0  0
  8 10  4  0  0  0  0
  8 11  1  0  0  0  0
  4 12  2  0  0  0  0
  3 13  4  0  0  0  0
  3 14  4  0  0  0  0
M  CHG  1   1  -1
M  END
