 xtb: 6.7.1 (edcfbbe)
          10172502253D

  4  3  0     0  0            999 V2000
   -3.1376    2.3746   -0.0000 C   0  0  0  0  0  0  0  0  0  0  0  0
   -3.3316    3.5875    0.0000 O   0  0  0  0  0  0  0  0  0  0  0  0
   -2.0905    1.7324   -0.0000 O   0  0  0  0  0  0  0  0  0  0  0  0
   -4.1129    1.7219   -0.0000 H   0  0  0  0  0  0  0  0  0  0  0  0
  1  2  2  0  0  0  0
  1  3  2  0  0  0  0
  1  4  1  0  0  0  0
M  CHG  1   1  -1
M  END
