 xtb: 6.7.1 (edcfbbe)
          10182507333D

 11 10  0     0  0            999 V2000
   -3.8025   -3.3373    0.3647 C   0  0  0  0  0  0  0  0  0  0  0  0
   -5.2672   -3.6439    0.8052 C   0  0  0  0  0  0  0  0  0  0  0  0
   -5.5481   -5.1175    0.3772 C   0  0  0  0  0  0  0  0  0  0  0  0
   -5.4715   -3.4345    2.0748 O   0  0  0  0  0  0  0  0  0  0  0  0
   -2.8797   -4.0971    0.9739 F   0  0  0  0  0  0  0  0  0  0  0  0
   -3.5773   -3.4846   -0.9625 F   0  0  0  0  0  0  0  0  0  0  0  0
   -3.4764   -2.0636    0.6357 F   0  0  0  0  0  0  0  0  0  0  0  0
   -4.7584   -6.0199    0.9792 F   0  0  0  0  0  0  0  0  0  0  0  0
   -5.4163   -5.3464   -0.9509 F   0  0  0  0  0  0  0  0  0  0  0  0
   -6.8097   -5.4703    0.6698 F   0  0  0  0  0  0  0  0  0  0  0  0
   -5.8963   -3.0320    0.0954 H   0  0  0  0  0  0  0  0  0  0  0  0
  1  2  1  0  0  0  0
  2  3  1  0  0  0  0
  2  4  4  0  0  0  0
  1  5  1  0  0  0  0
  1  6  1  0  0  0  0
  1  7  1  0  0  0  0
  3  8  1  0  0  0  0
  3  9  1  0  0  0  0
  3 10  1  0  0  0  0
  2 11  1  0  0  0  0
M  CHG  1   1  -1
M  END
