 xtb: 6.7.1 (edcfbbe)
          10182504373D

 14 14  0     0  0            999 V2000
   -2.0866   -2.8391    1.5481 C   0  0  0  0  0  0  0  0  0  0  0  0
   -2.5143   -2.1818    0.4150 C   0  0  0  0  0  0  0  0  0  0  0  0
   -3.7041   -2.5190   -0.2020 C   0  0  0  0  0  0  0  0  0  0  0  0
   -4.4605   -3.5532    0.3645 C   0  0  0  0  0  0  0  0  0  0  0  0
   -4.0507   -4.2286    1.5040 C   0  0  0  0  0  0  0  0  0  0  0  0
   -2.8298   -3.8990    2.1578 C   0  0  0  0  0  0  0  0  0  0  0  0
   -2.4288   -4.4985    3.2024 O   0  0  0  0  0  0  0  0  0  0  0  0
   -1.1535   -2.5655    2.0208 H   0  0  0  0  0  0  0  0  0  0  0  0
   -1.9087   -1.3888    0.0016 H   0  0  0  0  0  0  0  0  0  0  0  0
   -4.0600   -2.0202   -1.0875 H   0  0  0  0  0  0  0  0  0  0  0  0
   -5.6746   -3.9145   -0.2464 N   0  0  0  0  0  0  0  0  0  0  0  0
   -4.6631   -5.0206    1.9093 H   0  0  0  0  0  0  0  0  0  0  0  0
   -6.0411   -3.3179   -1.2594 O   0  0  0  0  0  0  0  0  0  0  0  0
   -6.3538   -4.8197    0.2380 O   0  0  0  0  0  0  0  0  0  0  0  0
  1  2  4  0  0  0  0
  2  3  4  0  0  0  0
  3  4  4  0  0  0  0
  4  5  4  0  0  0  0
  1  6  4  0  0  0  0
  5  6  4  0  0  0  0
  6  7  4  0  0  0  0
  1  8  1  0  0  0  0
  2  9  1  0  0  0  0
  3 10  1  0  0  0  0
  4 11  1  0  0  0  0
  5 12  1  0  0  0  0
 11 13  4  0  0  0  0
 11 14  4  0  0  0  0
M  CHG  1   1  -1
M  END
