8
Coordinates from ORCA-job inp
  C   -3.81131758986432     -0.66162792003395     -0.67566824897071
  C   -2.49641301347596      0.13043925380667     -0.85116750816055
  N   -1.41292878936789     -0.47289284017078     -0.36426731081368
  O   -2.58638412262391      1.26047535354583     -1.43585583132334
  H   -4.55134158173811     -0.04549437474382     -0.12089720721309
  H   -4.26376613233124     -0.86690171554133     -1.66994759699056
  H   -3.66669181821651     -1.62125921601936     -0.14091392975461
  H   -0.63240695238204      0.18673545915675     -0.56618036677346
